test/results/nordic_fault_multiterminal/multiterminal10/res_branch_2.csv
branch,from_bus,to_bus,X,B,G,Bfr,Bto,p_from,p_to,q_from,q_to,p_loss,q_loss,s_from,s_to,rate_a,ang_deg,angmin,angmax
7,24042,24043,0.015,-65.50218340611355,8.733624454148472,0.248815,0.248815,8.280658546049246,-8.167320852484927,-0.30106513970168763,0.5539780318560933,0.11333769356431844,0.25291289215440566,8.28612974642577,8.186087073029109,14.0,5.941797610386971,-40.0,40.0
4,24031,24032,0.01,-99.00990099009901,9.900990099009901,0.150795,0.150795,11.927545412174359,-11.809255572288778,0.7472527829735585,0.07532127470860396,0.1182898398855805,0.8225740576821624,11.950929933739186,11.809495775267346,14.0,5.685214759240964,-40.0,40.0
2,24021,24042,0.1,-9.900990099009901,0.99009900990099,1.5004299999999997,1.5004299999999997,7.981006491717359,-7.42043968591236,0.21724138384957598,1.7573860029729815,0.5605668058049993,1.9746273868225575,7.983962577548288,7.625701980520119,14.0,40.00000055635816,-40.0,40.0
3,24021,24032,0.04,-24.752475247524753,2.4752475247524752,0.60067,0.60067,0.037991088280374154,-0.037509185436052014,-0.3468998161442827,-1.0835808803346667,0.0004819028443221393,-1.4304806964789494,0.3489739320202361,1.0842298940810142,14.0,-2.927726028724619e-9,-40.0,40.0
8,24042,24044,0.02,-49.504950495049506,4.9504950495049505,0.29908999999999997,0.29908999999999997,9.416976995596306,-9.270399385695942,-0.3618953453753752,1.1062841080789818,0.14657760990036373,0.7443887627036065,9.423928266736457,9.336175303522305,14.0,8.984860574847621,-40.0,40.0
5,24032,24042,0.066667,-14.669856529161823,2.2004674770368884,1.00029,1.00029,11.84676475772483,-10.616295305402858,1.0082596056260626,4.804720202098475,1.230469452321973,5.812979807724538,11.889593040016479,11.652942213534399,14.0,40.00000055928589,-40.0,40.0
1,24011,24021,0.06,-16.501650165016503,1.6501650165016504,0.899745,0.899745,6.527798391009941,-6.280103996742532,-1.7067681072668726,2.1535296208978103,0.24769439426740902,0.44676151363093775,6.747237153506264,6.639080963355228,14.0,20.61942235511344,-40.0,40.0
